                   SWAT+               
             Revision 60.5.5          
      Soil & Water Assessment Tool    
               PC Version             
    Program reading . . . executing


  Date of Sim  10/ 7/2022 Time  16:16:15
 reading from precipitation file         Time  16:16:15
 reading from temperature file           Time  16:16:15
 reading from solar radiation file       Time  16:16:15
 reading from relative humidity file     Time  16:16:15
 reading from wind file                  Time  16:16:15
 reading from wgn file                   Time  16:16:15
 reading from wx station file            Time  16:16:15
  Original Simulation        1   1  2008 Yr    1 of   10 Time  16:16:17
  Original Simulation        1   2  2008 Yr    1 of   10 Time  16:16:17
  Original Simulation        1   3  2008 Yr    1 of   10 Time  16:16:17
  Original Simulation        1   4  2008 Yr    1 of   10 Time  16:16:17
  Original Simulation        1   5  2008 Yr    1 of   10 Time  16:16:17
  Original Simulation        1   6  2008 Yr    1 of   10 Time  16:16:17
  Original Simulation        1   7  2008 Yr    1 of   10 Time  16:16:18
  Original Simulation        1   8  2008 Yr    1 of   10 Time  16:16:18
  Original Simulation        1   9  2008 Yr    1 of   10 Time  16:16:18
  Original Simulation        1  10  2008 Yr    1 of   10 Time  16:16:18
  Original Simulation        1  11  2008 Yr    1 of   10 Time  16:16:18
  Original Simulation        1  12  2008 Yr    1 of   10 Time  16:16:18
  Original Simulation        1  13  2008 Yr    1 of   10 Time  16:16:18
